243
Lattice="14.73717 0.0 0.0 -7.368584999999998 12.762763599889919 0.0 0.0 0.0 16.211550000000003" Properties=species:S:1:pos:R:3:spacegroup_kinds:I:1 pbc="T T T"
Si       2.30931454       0.00000000       3.60274679        0
Si      -1.15465727       1.99992506       1.80146346        0
Si       1.30153773       2.25432948       0.00018013        0
O        1.37645168       1.13758766       4.24526456        1
O        3.23898435       0.62324829       2.44398123        1
O        2.75314898       2.49341858       0.64269789        1
O        0.29695398       1.76083595       1.15858544        1
O       -1.07974332       3.11666687       2.95986877        1
O        0.78278935       3.63100624       4.76115211        1
Si       2.30931454       0.00000000       9.00659680        0
Si      -1.15465727       1.99992506       7.20531346        0
Si       1.30153773       2.25432948       5.40403013        0
O        1.37645168       1.13758766       9.64911456        1
O        3.23898435       0.62324829       7.84783123        1
O        2.75314898       2.49341858       6.04654789        1
O        0.29695398       1.76083595       6.56243544        1
O       -1.07974332       3.11666687       8.36371877        1
O        0.78278935       3.63100624      10.16500211        1
Si       2.30931454       0.00000000      14.41044680        0
Si      -1.15465727       1.99992506      12.60916346        0
Si       1.30153773       2.25432948      10.80788013        0
O        1.37645168       1.13758766      15.05296456        1
O        3.23898435       0.62324829      13.25168123        1
O        2.75314898       2.49341858      11.45039789        1
O        0.29695398       1.76083595      11.96628544        1
O       -1.07974332       3.11666687      13.76756877        1
O        0.78278935       3.63100624      15.56885211        1
Si      -0.14688046       4.25425453       3.60274679        0
Si      -3.61085227       6.25417959       1.80146346        0
Si      -1.15465727       6.50858401       0.00018013        0
O       -1.07974332       5.39184220       4.24526456        1
O        0.78278935       4.87750282       2.44398123        1
O        0.29695398       6.74767312       0.64269789        1
O       -2.15924102       6.01509048       1.15858544        1
O       -3.53593832       7.37092140       2.95986877        1
O       -1.67340565       7.88526078       4.76115211        1
Si      -0.14688046       4.25425453       9.00659680        0
Si      -3.61085227       6.25417959       7.20531346        0
Si      -1.15465727       6.50858401       5.40403013        0
O       -1.07974332       5.39184220       9.64911456        1
O        0.78278935       4.87750282       7.84783123        1
O        0.29695398       6.74767312       6.04654789        1
O       -2.15924102       6.01509048       6.56243544        1
O       -3.53593832       7.37092140       8.36371877        1
O       -1.67340565       7.88526078      10.16500211        1
Si      -0.14688046       4.25425453      14.41044680        0
Si      -3.61085227       6.25417959      12.60916346        0
Si      -1.15465727       6.50858401      10.80788013        0
O       -1.07974332       5.39184220      15.05296456        1
O        0.78278935       4.87750282      13.25168123        1
O        0.29695398       6.74767312      11.45039789        1
O       -2.15924102       6.01509048      11.96628544        1
O       -3.53593832       7.37092140      13.76756877        1
O       -1.67340565       7.88526078      15.56885211        1
Si      -2.60307546       8.50850907       3.60274679        0
Si      -6.06704727      10.50843412       1.80146346        0
Si      -3.61085227      10.76283854       0.00018013        0
O       -3.53593832       9.64609673       4.24526456        1
O       -1.67340565       9.13175736       2.44398123        1
O       -2.15924102      11.00192765       0.64269789        1
O       -4.61543602      10.26934502       1.15858544        1
O       -5.99213332      11.62517594       2.95986877        1
O       -4.12960065      12.13951531       4.76115211        1
Si      -2.60307546       8.50850907       9.00659680        0
Si      -6.06704727      10.50843412       7.20531346        0
Si      -3.61085227      10.76283854       5.40403013        0
O       -3.53593832       9.64609673       9.64911456        1
O       -1.67340565       9.13175736       7.84783123        1
O       -2.15924102      11.00192765       6.04654789        1
O       -4.61543602      10.26934502       6.56243544        1
O       -5.99213332      11.62517594       8.36371877        1
O       -4.12960065      12.13951531      10.16500211        1
Si      -2.60307546       8.50850907      14.41044680        0
Si      -6.06704727      10.50843412      12.60916346        0
Si      -3.61085227      10.76283854      10.80788013        0
O       -3.53593832       9.64609673      15.05296456        1
O       -1.67340565       9.13175736      13.25168123        1
O       -2.15924102      11.00192765      11.45039789        1
O       -4.61543602      10.26934502      11.96628544        1
O       -5.99213332      11.62517594      13.76756877        1
O       -4.12960065      12.13951531      15.56885211        1
Si       7.22170454       0.00000000       3.60274679        0
Si       3.75773273       1.99992506       1.80146346        0
Si       6.21392773       2.25432948       0.00018013        0
O        6.28884168       1.13758766       4.24526456        1
O        8.15137435       0.62324829       2.44398123        1
O        7.66553898       2.49341858       0.64269789        1
O        5.20934398       1.76083595       1.15858544        1
O        3.83264668       3.11666687       2.95986877        1
O        5.69517935       3.63100624       4.76115211        1
Si       7.22170454       0.00000000       9.00659680        0
Si       3.75773273       1.99992506       7.20531346        0
Si       6.21392773       2.25432948       5.40403013        0
O        6.28884168       1.13758766       9.64911456        1
O        8.15137435       0.62324829       7.84783123        1
O        7.66553898       2.49341858       6.04654789        1
O        5.20934398       1.76083595       6.56243544        1
O        3.83264668       3.11666687       8.36371877        1
O        5.69517935       3.63100624      10.16500211        1
Si       7.22170454       0.00000000      14.41044680        0
Si       3.75773273       1.99992506      12.60916346        0
Si       6.21392773       2.25432948      10.80788013        0
O        6.28884168       1.13758766      15.05296456        1
O        8.15137435       0.62324829      13.25168123        1
O        7.66553898       2.49341858      11.45039789        1
O        5.20934398       1.76083595      11.96628544        1
O        3.83264668       3.11666687      13.76756877        1
O        5.69517935       3.63100624      15.56885211        1
Si       4.76550954       4.25425453       3.60274679        0
Si       1.30153773       6.25417959       1.80146346        0
Si       3.75773273       6.50858401       0.00018013        0
O        3.83264668       5.39184220       4.24526456        1
O        5.69517935       4.87750282       2.44398123        1
O        5.20934398       6.74767312       0.64269789        1
O        2.75314898       6.01509048       1.15858544        1
O        1.37645168       7.37092140       2.95986877        1
O        3.23898435       7.88526078       4.76115211        1
Si       4.76550954       4.25425453       9.00659680        0
Si       1.30153773       6.25417959       7.20531346        0
Si       3.75773273       6.50858401       5.40403013        0
O        3.83264668       5.39184220       9.64911456        1
O        5.69517935       4.87750282       7.84783123        1
O        5.20934398       6.74767312       6.04654789        1
O        2.75314898       6.01509048       6.56243544        1
O        1.37645168       7.37092140       8.36371877        1
O        3.23898435       7.88526078      10.16500211        1
Si       4.76550954       4.25425453      14.41044680        0
Si       1.30153773       6.25417959      12.60916346        0
Si       3.75773273       6.50858401      10.80788013        0
O        3.83264668       5.39184220      15.05296456        1
O        5.69517935       4.87750282      13.25168123        1
O        5.20934398       6.74767312      11.45039789        1
O        2.75314898       6.01509048      11.96628544        1
O        1.37645168       7.37092140      13.76756877        1
O        3.23898435       7.88526078      15.56885211        1
Si       2.30931454       8.50850907       3.60274679        0
Si      -1.15465727      10.50843412       1.80146346        0
Si       1.30153773      10.76283854       0.00018013        0
O        1.37645168       9.64609673       4.24526456        1
O        3.23898435       9.13175736       2.44398123        1
O        2.75314898      11.00192765       0.64269789        1
O        0.29695398      10.26934502       1.15858544        1
O       -1.07974332      11.62517594       2.95986877        1
O        0.78278935      12.13951531       4.76115211        1
Si       2.30931454       8.50850907       9.00659680        0
Si      -1.15465727      10.50843412       7.20531346        0
Si       1.30153773      10.76283854       5.40403013        0
O        1.37645168       9.64609673       9.64911456        1
O        3.23898435       9.13175736       7.84783123        1
O        2.75314898      11.00192765       6.04654789        1
O        0.29695398      10.26934502       6.56243544        1
O       -1.07974332      11.62517594       8.36371877        1
O        0.78278935      12.13951531      10.16500211        1
Si       2.30931454       8.50850907      14.41044680        0
Si      -1.15465727      10.50843412      12.60916346        0
Si       1.30153773      10.76283854      10.80788013        0
O        1.37645168       9.64609673      15.05296456        1
O        3.23898435       9.13175736      13.25168123        1
O        2.75314898      11.00192765      11.45039789        1
O        0.29695398      10.26934502      11.96628544        1
O       -1.07974332      11.62517594      13.76756877        1
O        0.78278935      12.13951531      15.56885211        1
Si      12.13409454       0.00000000       3.60274679        0
Si       8.67012273       1.99992506       1.80146346        0
Si      11.12631773       2.25432948       0.00018013        0
O       11.20123168       1.13758766       4.24526456        1
O       13.06376435       0.62324829       2.44398123        1
O       12.57792898       2.49341858       0.64269789        1
O       10.12173398       1.76083595       1.15858544        1
O        8.74503668       3.11666687       2.95986877        1
O       10.60756935       3.63100624       4.76115211        1
Si      12.13409454       0.00000000       9.00659680        0
Si       8.67012273       1.99992506       7.20531346        0
Si      11.12631773       2.25432948       5.40403013        0
O       11.20123168       1.13758766       9.64911456        1
O       13.06376435       0.62324829       7.84783123        1
O       12.57792898       2.49341858       6.04654789        1
O       10.12173398       1.76083595       6.56243544        1
O        8.74503668       3.11666687       8.36371877        1
O       10.60756935       3.63100624      10.16500211        1
Si      12.13409454       0.00000000      14.41044680        0
Si       8.67012273       1.99992506      12.60916346        0
Si      11.12631773       2.25432948      10.80788013        0
O       11.20123168       1.13758766      15.05296456        1
O       13.06376435       0.62324829      13.25168123        1
O       12.57792898       2.49341858      11.45039789        1
O       10.12173398       1.76083595      11.96628544        1
O        8.74503668       3.11666687      13.76756877        1
O       10.60756935       3.63100624      15.56885211        1
Si       9.67789954       4.25425453       3.60274679        0
Si       6.21392773       6.25417959       1.80146346        0
Si       8.67012273       6.50858401       0.00018013        0
O        8.74503668       5.39184220       4.24526456        1
O       10.60756935       4.87750282       2.44398123        1
O       10.12173398       6.74767312       0.64269789        1
O        7.66553898       6.01509048       1.15858544        1
O        6.28884168       7.37092140       2.95986877        1
O        8.15137435       7.88526078       4.76115211        1
Si       9.67789954       4.25425453       9.00659680        0
Si       6.21392773       6.25417959       7.20531346        0
Si       8.67012273       6.50858401       5.40403013        0
O        8.74503668       5.39184220       9.64911456        1
O       10.60756935       4.87750282       7.84783123        1
O       10.12173398       6.74767312       6.04654789        1
O        7.66553898       6.01509048       6.56243544        1
O        6.28884168       7.37092140       8.36371877        1
O        8.15137435       7.88526078      10.16500211        1
Si       9.67789954       4.25425453      14.41044680        0
Si       6.21392773       6.25417959      12.60916346        0
Si       8.67012273       6.50858401      10.80788013        0
O        8.74503668       5.39184220      15.05296456        1
O       10.60756935       4.87750282      13.25168123        1
O       10.12173398       6.74767312      11.45039789        1
O        7.66553898       6.01509048      11.96628544        1
O        6.28884168       7.37092140      13.76756877        1
O        8.15137435       7.88526078      15.56885211        1
Si       7.22170454       8.50850907       3.60274679        0
Si       3.75773273      10.50843412       1.80146346        0
Si       6.21392773      10.76283854       0.00018013        0
O        6.28884168       9.64609673       4.24526456        1
O        8.15137435       9.13175736       2.44398123        1
O        7.66553898      11.00192765       0.64269789        1
O        5.20934398      10.26934502       1.15858544        1
O        3.83264668      11.62517594       2.95986877        1
O        5.69517935      12.13951531       4.76115211        1
Si       7.22170454       8.50850907       9.00659680        0
Si       3.75773273      10.50843412       7.20531346        0
Si       6.21392773      10.76283854       5.40403013        0
O        6.28884168       9.64609673       9.64911456        1
O        8.15137435       9.13175736       7.84783123        1
O        7.66553898      11.00192765       6.04654789        1
O        5.20934398      10.26934502       6.56243544        1
O        3.83264668      11.62517594       8.36371877        1
O        5.69517935      12.13951531      10.16500211        1
Si       7.22170454       8.50850907      14.41044680        0
Si       3.75773273      10.50843412      12.60916346        0
Si       6.21392773      10.76283854      10.80788013        0
O        6.28884168       9.64609673      15.05296456        1
O        8.15137435       9.13175736      13.25168123        1
O        7.66553898      11.00192765      11.45039789        1
O        5.20934398      10.26934502      11.96628544        1
O        3.83264668      11.62517594      13.76756877        1
O        5.69517935      12.13951531      15.56885211        1
